# Source common environment variables
. ../common/env_vars

# Pre-empt some common namelist settings.
# NAMARG:
CNMEXP="'hmec'"

# NAMRIP:
TSTEP="600.000000"

# NAEPHY:
LEO3CH=".TRUE."
NAEPHY_EXTRA="LO3CH_HLO=.FALSE.,"

# NAMDPHY:
NVEXTR="7"
NCEXTR="8"

# NAMCT0:
NFRPOS=3
# NAMCT0_EXTRA="NSPPR=1,"  # uncomment for per-level norms

# Include common namelists
. ../common/namelists

cat >> fort.4 << EOF
&NAMGFL
NAERO=2,
NACTAERO=2,
YAERO_NL(1)%CNAME='Sulphate_SO4',
YAERO_NL(1)%IGRBCODE=210011,
YAERO_NL(1)%LMASSFIX=.true.,
YAERO_NL(1)%LQM=.true.,
YAERO_NL(1)%LQM3D=.false.,
YAERO_NL(1)%BETAMFBC=-999,
YAERO_NL(2)%CNAME='Sulphate_SO2',
YAERO_NL(2)%IGRBCODE=210012,
YAERO_NL(2)%LMASSFIX=.true.,
YAERO_NL(2)%LQM=.true.,
YAERO_NL(2)%LQM3D=.false.,
YAERO_NL(2)%BETAMFBC=-999,
LAERAOT=false,
LAERLISI=false,

NAEROUT=0,
NAERO_WVL_DIAG=20,
NAERO_WVL_DIAG_TYPES=5,
YAERO_WVL_DIAG_NL(1)%IWVL=550,
YAERO_WVL_DIAG_NL(1)%IGRIBDIAG=210207,215104,215122,215140,215158,
YAERO_WVL_DIAG_NL(2)%IWVL=340,
YAERO_WVL_DIAG_NL(2)%IGRIBDIAG=210217,215096,215114,215132,215150,
YAERO_WVL_DIAG_NL(3)%IWVL=355,
YAERO_WVL_DIAG_NL(3)%IGRIBDIAG=210218,215097,215115,215133,215151,
YAERO_WVL_DIAG_NL(4)%IWVL=380,
YAERO_WVL_DIAG_NL(4)%IGRIBDIAG=210219,215098,215116,215134,215152,
YAERO_WVL_DIAG_NL(5)%IWVL=400,
YAERO_WVL_DIAG_NL(5)%IGRIBDIAG=210220,215099,215117,215135,215153,
YAERO_WVL_DIAG_NL(6)%IWVL=440,
YAERO_WVL_DIAG_NL(6)%IGRIBDIAG=210221,215100,215118,215136,215154,
YAERO_WVL_DIAG_NL(7)%IWVL=469,
YAERO_WVL_DIAG_NL(7)%IGRIBDIAG=210213,215101,215119,215137,215155,
YAERO_WVL_DIAG_NL(8)%IWVL=500,
YAERO_WVL_DIAG_NL(8)%IGRIBDIAG=210222,215102,215120,215138,215156,
YAERO_WVL_DIAG_NL(9)%IWVL=532,
YAERO_WVL_DIAG_NL(9)%IGRIBDIAG=210223,215103,215121,215139,215157,
YAERO_WVL_DIAG_NL(10)%IWVL=645,
YAERO_WVL_DIAG_NL(10)%IGRIBDIAG=210224,215105,215123,215141,215159,
YAERO_WVL_DIAG_NL(11)%IWVL=670,
YAERO_WVL_DIAG_NL(11)%IGRIBDIAG=210214,215106,215124,215142,215160,
YAERO_WVL_DIAG_NL(12)%IWVL=800,
YAERO_WVL_DIAG_NL(12)%IGRIBDIAG=210225,215107,215125,215143,215161,
YAERO_WVL_DIAG_NL(13)%IWVL=858,
YAERO_WVL_DIAG_NL(13)%IGRIBDIAG=210226,215108,215126,215144,215162,
YAERO_WVL_DIAG_NL(14)%IWVL=865,
YAERO_WVL_DIAG_NL(14)%IGRIBDIAG=210215,215109,215127,215145,215163,
YAERO_WVL_DIAG_NL(15)%IWVL=1020,
YAERO_WVL_DIAG_NL(15)%IGRIBDIAG=210227,215110,215128,215146,215164,
YAERO_WVL_DIAG_NL(16)%IWVL=1064,
YAERO_WVL_DIAG_NL(16)%IGRIBDIAG=210228,215111,215129,215147,215165,
YAERO_WVL_DIAG_NL(17)%IWVL=1240,
YAERO_WVL_DIAG_NL(17)%IGRIBDIAG=210216,215112,215130,215148,215166,
YAERO_WVL_DIAG_NL(18)%IWVL=1640,
YAERO_WVL_DIAG_NL(18)%IGRIBDIAG=210229,215113,215131,215149,215167,
YAERO_WVL_DIAG_NL(19)%IWVL=2130,
YAERO_WVL_DIAG_NL(19)%IGRIBDIAG=210230,215176,215177,215178,215179,
YAERO_WVL_DIAG_NL(20)%IWVL=10000,
YAERO_WVL_DIAG_NL(20)%IGRIBDIAG=216008,216009,216010,216011,216012,
NCHEM=0,
YQ_NL%LGP=true,
YQ_NL%LSP=false,
YO3_NL%LGP=true,
YQ_NL%LGPINGP=true,
YL_NL%LGP=true,
YI_NL%LGP=true,
YA_NL%LGP=true,
!YR_NL%NREQIN=-1,
!YS_NL%NREQIN=-1,
/
 &NAERAD
 LECOMPGRID=false,
 RMUZUV=0.01,
 NUVTIM=72,
 NRADUV=1,
 NUV=24,
 LUVPROC=false,
 LUVAERP=true,
 KMODTS=2,
 NRPROMA=0,
 LEPO3RA=false,
 LO3_CHEM_UV=false,
 NGHGRAD=21,
 NAERMACC=1,
 LAER3D=.false.,
 /
 &NAMFPC
 CFPFMT="MODEL",
 NFP3DFS=1,
 NFP3DFP=1,
 MFP3DFS(:)=210011
 MFP3DFP(:)=210012
 NFP2DF=1,
 MFP2DF(:)=152,
 NFPPHY=22,
 MFPPHY(:)=210035,210119,210212,210073,214002,210207,215104,210217,215099,215120,215143,215179,215081,215082,215083,215084,215085,215086,215087,215088,215174,215089,
 NRFP3S(:)=-99,
 RFP3P=100000.,85000.,70000.,50000.,
 /
 &NAEAER
 NTYPAER=0,0,0,0,2,0,0,0,0,0,
YAERO_DESC(1)%IGRIBDIAG=215081,215082,215083,215084,215085,215086,215088,215087,
YAERO_DESC(1)%RDDEPVSEA=0.0015,
YAERO_DESC(1)%RDDEPVLIC=0.0025,
YAERO_DESC(1)%RSEDIMV=0.001,
YAERO_DESC(1)%RSCAVIN=0.7,
YAERO_DESC(1)%RSCAVBCR=0.001,
YAERO_DESC(1)%RSCAVBCS=0.01,
YAERO_DESC(1)%COPTCLASS='Sulphate',
YAERO_DESC(1)%CHYGCLASS='Sulphate',
YAERO_DESC(1)%IAEROCV=1,
YAERO_DESC(2)%IGRIBDIAG=215168,215169,215170,215171,215172,215173,215175,215174,
YAERO_DESC(2)%RDDEPVSEA=-9999,
YAERO_DESC(2)%RDDEPVLIC=-9999,
YAERO_DESC(2)%RSEDIMV=0.001,
YAERO_DESC(2)%RSCAVIN=0.2,
YAERO_DESC(2)%RSCAVBCR=0,
YAERO_DESC(2)%RSCAVBCS=0,
YAERO_DESC(2)%COPTCLASS='None',
YAERO_DESC(2)%CHYGCLASS='None',
YAERO_DESC(2)%IAEROCV=0,
 LAERVOL=false,
 NDRYDEPVEL_DYN=1,
 LAERNGAT=true,
 NAERSCAV=1,
 LAERGTOP=true,
 LAERHYGRO=true,
 LAERSEDIM=true,
 LAERDRYDP=true,
 LAERSURF=true,
 NDDUST=3,
 NSSALT=3,
 NSO4SCHEME=1,
 RDDUAER(34)=0.8,
 RDDUAER(37)=0.6,
 LSEASALT_RH80=true,
 LAERRRTM=false,
 /
  &NAMCOMPO
  LCHEM_DIA=true,
  LCHEM_DDFLX=true,
  LCOMPO_DDFLX_DIR=true,
  LCHEM_TROPO=true,
  LCOMPO_DCDD=true,
  LAERNITRATE=false,
  /
  &NAMMCC
  LMCCEC=true,
  LMCCIEC=false,
  LMCC_COMPO=false,
  /
  &NAMCOMPO_EMIS THIS%SPECIES='Sulphate_SO2', THIS%SECTOR='AnthroLow', THIS%PARAMID=210035, THIS%VERTICAL_PROFILE_TYPE="AltitudeMap", THIS%VERTICAL_PARAMID=216045, THIS%VERTICAL_BASE_LEVEL=-1, THIS%VERTICAL_TOP_LEVEL=-4, THIS%VERTICAL_THRESHOLD=200 /
  &NAMCOMPO_EMIS THIS%SPECIES='Sulphate_SO2', THIS%SECTOR='AnthroHigh', THIS%PARAMID=210036, THIS%VERTICAL_PROFILE_TYPE="AltitudeMap", THIS%VERTICAL_PARAMID=216045, THIS%VERTICAL_BASE_LEVEL=-1, THIS%VERTICAL_TOP_LEVEL=-4, THIS%VERTICAL_THRESHOLD=200 /
  &NAMCOMPO_EMIS THIS%SPECIES='Sulphate_SO2', THIS%SECTOR='Biomass-burning', THIS%PARAMID=210042, THIS%SCALING=64.058e-3, THIS%DIURNAL_CYCLE_TYPE='GFAS', THIS%DIURNAL_PEAK_HOUR=13.5, THIS%DIURNAL_BASELINE=0.2, THIS%VERTICAL_PROFILE_TYPE='GFAS', THIS%VERTICAL_PARAMID=210119 /
  &NAMCOMPO_EMIS /
EOF
