# Source common environment variables
. ../common/env_vars

# Pre-empt some common namelist settings.
# NAMARG:
CNMEXP="'hmec'"

# NAEPHY:
LEO3CH=".TRUE."
NAEPHY_EXTRA="LO3CH_HLO=.FALSE.,LWETONLINE=true,"

# NAMDPHY:
NVEXTR="17"
NCEXTR="99"

# NAMCT0:
NFRPOS=3
# NAMCT0_EXTRA="NSPPR=1,"  # uncomment for per-level norms

# Include common namelists
. ../common/namelists

cat >> fort.4 << EOF
&NAMGFL
NGHG=2,
YLRCH4_NL%CNAME='kCH4',
YLRCH4_NL%IGRBCODE=210071,
YLRCH4_NL%LGP=.TRUE.,YLRCH4_NL%LTRAJIO=.FALSE.,
YGHG_NL(1)%CNAME='CO2_GHG',
YGHG_NL(1)%IGRBCODE=210061,
YGHG_NL(1)%LADV5=true,
YGHG_NL(1)%LASSIM=true,
YGHG_NL(1)%LMASSFIX=true,
YGHG_NL(1)%LNEGFIX=.FALSE.,
YGHG_NL(1)%LQM=false,
YGHG_NL(1)%LQM3D=true,
YGHG_NL(1)%BETAMFBC=2,
YGHG_NL(2)%CNAME='CH4_GHG',
YGHG_NL(2)%IGRBCODE=210062,
YGHG_NL(2)%LADV5=true,
YGHG_NL(2)%LASSIM=true,
YGHG_NL(2)%LMASSFIX=true,
YGHG_NL(2)%LNEGFIX=.FALSE.,
YGHG_NL(2)%LQM=false,
YGHG_NL(2)%LQM3D=true,
YGHG_NL(2)%BETAMFBC=2,
NAERO=16,
NACTAERO=16,
YAERO_NL(1)%CNAME='Sea-salt_1',
YAERO_NL(1)%IGRBCODE=210001,
YAERO_NL(1)%LMASSFIX=.true.,
YAERO_NL(1)%LQM=.true.,
YAERO_NL(1)%LQM3D=.false.,
YAERO_NL(1)%BETAMFBC=-999,
YAERO_NL(2)%CNAME='Sea-salt_2',
YAERO_NL(2)%IGRBCODE=210002,
YAERO_NL(2)%LMASSFIX=.true.,
YAERO_NL(2)%LQM=.true.,
YAERO_NL(2)%LQM3D=.false.,
YAERO_NL(2)%BETAMFBC=-999,
YAERO_NL(3)%CNAME='Sea-salt_3',
YAERO_NL(3)%IGRBCODE=210003,
YAERO_NL(3)%LMASSFIX=.true.,
YAERO_NL(3)%LQM=.true.,
YAERO_NL(3)%LQM3D=.false.,
YAERO_NL(3)%BETAMFBC=-999,
YAERO_NL(4)%CNAME='Desert-dust_1',
YAERO_NL(4)%IGRBCODE=210004,
YAERO_NL(4)%LMASSFIX=.true.,
YAERO_NL(4)%LQM=.true.,
YAERO_NL(4)%LQM3D=.false.,
YAERO_NL(4)%BETAMFBC=-999,
YAERO_NL(5)%CNAME='Desert-dust_2',
YAERO_NL(5)%IGRBCODE=210005,
YAERO_NL(5)%LMASSFIX=.true.,
YAERO_NL(5)%LQM=.true.,
YAERO_NL(5)%LQM3D=.false.,
YAERO_NL(5)%BETAMFBC=-999,
YAERO_NL(6)%CNAME='Desert-dust_3',
YAERO_NL(6)%IGRBCODE=210006,
YAERO_NL(6)%LMASSFIX=.true.,
YAERO_NL(6)%LQM=.true.,
YAERO_NL(6)%LQM3D=.false.,
YAERO_NL(6)%BETAMFBC=-999,
YAERO_NL(7)%CNAME='Organic-matter_A',
YAERO_NL(7)%IGRBCODE=210007,
YAERO_NL(7)%LMASSFIX=.true.,
YAERO_NL(7)%LQM=.true.,
YAERO_NL(7)%LQM3D=.false.,
YAERO_NL(7)%BETAMFBC=-999,
YAERO_NL(8)%CNAME='Organic-matter_B',
YAERO_NL(8)%IGRBCODE=210008,
YAERO_NL(8)%LMASSFIX=.true.,
YAERO_NL(8)%LQM=.true.,
YAERO_NL(8)%LQM3D=.false.,
YAERO_NL(8)%BETAMFBC=-999,
YAERO_NL(9)%CNAME='Black-carbon_A',
YAERO_NL(9)%IGRBCODE=210009,
YAERO_NL(9)%LMASSFIX=.true.,
YAERO_NL(9)%LQM=.true.,
YAERO_NL(9)%LQM3D=.false.,
YAERO_NL(9)%BETAMFBC=-999,
YAERO_NL(10)%CNAME='Black-carbon_B',
YAERO_NL(10)%IGRBCODE=210010,
YAERO_NL(10)%LMASSFIX=.true.,
YAERO_NL(10)%LQM=.true.,
YAERO_NL(10)%LQM3D=.false.,
YAERO_NL(10)%BETAMFBC=-999,
YAERO_NL(11)%CNAME='Sulphate_SO4',
YAERO_NL(11)%IGRBCODE=210011,
YAERO_NL(11)%LMASSFIX=.true.,
YAERO_NL(11)%LQM=.true.,
YAERO_NL(11)%LQM3D=.false.,
YAERO_NL(11)%BETAMFBC=-999,
YAERO_NL(12)%CNAME='Nitrate_1',
YAERO_NL(12)%IGRBCODE=210247,
YAERO_NL(12)%LMASSFIX=.true.,
YAERO_NL(12)%LQM=.true.,
YAERO_NL(12)%LQM3D=.false.,
YAERO_NL(12)%BETAMFBC=-999,
YAERO_NL(13)%CNAME='Nitrate_2',
YAERO_NL(13)%IGRBCODE=210248,
YAERO_NL(13)%LMASSFIX=.true.,
YAERO_NL(13)%LQM=.true.,
YAERO_NL(13)%LQM3D=.false.,
YAERO_NL(13)%BETAMFBC=-999,
YAERO_NL(14)%CNAME='Ammonium',
YAERO_NL(14)%IGRBCODE=210249,
YAERO_NL(14)%LMASSFIX=.true.,
YAERO_NL(14)%LQM=.true.,
YAERO_NL(14)%LQM3D=.false.,
YAERO_NL(14)%BETAMFBC=-999,
YAERO_NL(15)%CNAME='SecOrg_Bio',
YAERO_NL(15)%IGRBCODE=216074,
YAERO_NL(15)%LMASSFIX=.true.,
YAERO_NL(15)%LQM=.true.,
YAERO_NL(15)%LQM3D=.false.,
YAERO_NL(15)%BETAMFBC=-999,
YAERO_NL(15)%NREQIN=-1,
YAERO_NL(16)%CNAME='SecOrg_Anth',
YAERO_NL(16)%IGRBCODE=216075,
YAERO_NL(16)%LMASSFIX=.true.,
YAERO_NL(16)%LQM=.true.,
YAERO_NL(16)%LQM3D=.false.,
YAERO_NL(16)%BETAMFBC=-999,
YAERO_NL(16)%NREQIN=-1,
LAERAOT=true,
LAERLISI=true,

NAEROUT=2,
YAEROUT_NL(1)%CNAME='AEROUT-7',
YAEROUT_NL(1)%IGRBCODE=210022,
YAEROUT_NL(2)%CNAME='AEROUT16',
YAEROUT_NL(2)%IGRBCODE=210025,
NUVP=1,
YUVP_NL(1)%CNAME='UVP2DRAD',
YUVP_NL(1)%IGRBCODE=210055,
NAERO_WVL_DIAG=20,
NAERO_WVL_DIAG_TYPES=5,
YAERO_WVL_DIAG_NL(1)%IWVL=550,
YAERO_WVL_DIAG_NL(1)%IGRIBDIAG=210207,215104,215122,215140,215158,
YAERO_WVL_DIAG_NL(2)%IWVL=340,
YAERO_WVL_DIAG_NL(2)%IGRIBDIAG=210217,215096,215114,215132,215150,
YAERO_WVL_DIAG_NL(3)%IWVL=355,
YAERO_WVL_DIAG_NL(3)%IGRIBDIAG=210218,215097,215115,215133,215151,
YAERO_WVL_DIAG_NL(4)%IWVL=380,
YAERO_WVL_DIAG_NL(4)%IGRIBDIAG=210219,215098,215116,215134,215152,
YAERO_WVL_DIAG_NL(5)%IWVL=400,
YAERO_WVL_DIAG_NL(5)%IGRIBDIAG=210220,215099,215117,215135,215153,
YAERO_WVL_DIAG_NL(6)%IWVL=440,
YAERO_WVL_DIAG_NL(6)%IGRIBDIAG=210221,215100,215118,215136,215154,
YAERO_WVL_DIAG_NL(7)%IWVL=469,
YAERO_WVL_DIAG_NL(7)%IGRIBDIAG=210213,215101,215119,215137,215155,
YAERO_WVL_DIAG_NL(8)%IWVL=500,
YAERO_WVL_DIAG_NL(8)%IGRIBDIAG=210222,215102,215120,215138,215156,
YAERO_WVL_DIAG_NL(9)%IWVL=532,
YAERO_WVL_DIAG_NL(9)%IGRIBDIAG=210223,215103,215121,215139,215157,
YAERO_WVL_DIAG_NL(10)%IWVL=645,
YAERO_WVL_DIAG_NL(10)%IGRIBDIAG=210224,215105,215123,215141,215159,
YAERO_WVL_DIAG_NL(11)%IWVL=670,
YAERO_WVL_DIAG_NL(11)%IGRIBDIAG=210214,215106,215124,215142,215160,
YAERO_WVL_DIAG_NL(12)%IWVL=800,
YAERO_WVL_DIAG_NL(12)%IGRIBDIAG=210225,215107,215125,215143,215161,
YAERO_WVL_DIAG_NL(13)%IWVL=858,
YAERO_WVL_DIAG_NL(13)%IGRIBDIAG=210226,215108,215126,215144,215162,
YAERO_WVL_DIAG_NL(14)%IWVL=865,
YAERO_WVL_DIAG_NL(14)%IGRIBDIAG=210215,215109,215127,215145,215163,
YAERO_WVL_DIAG_NL(15)%IWVL=1020,
YAERO_WVL_DIAG_NL(15)%IGRIBDIAG=210227,215110,215128,215146,215164,
YAERO_WVL_DIAG_NL(16)%IWVL=1064,
YAERO_WVL_DIAG_NL(16)%IGRIBDIAG=210228,215111,215129,215147,215165,
YAERO_WVL_DIAG_NL(17)%IWVL=1240,
YAERO_WVL_DIAG_NL(17)%IGRIBDIAG=210216,215112,215130,215148,215166,
YAERO_WVL_DIAG_NL(18)%IWVL=1640,
YAERO_WVL_DIAG_NL(18)%IGRIBDIAG=210229,215113,215131,215149,215167,
YAERO_WVL_DIAG_NL(19)%IWVL=2130,
YAERO_WVL_DIAG_NL(19)%IGRIBDIAG=210230,215176,215177,215178,215179,
YAERO_WVL_DIAG_NL(20)%IWVL=10000,
YAERO_WVL_DIAG_NL(20)%IGRIBDIAG=216008,216009,216010,216011,216012,
NCHEM=74,
YCHEM_NL(1)%CNAME='O3',
YCHEM_NL(1)%NREQIN=1,
YCHEM_NL(1)%RMOLMASS=48.0,
YCHEM_NL(1)%IGRBCODE=210203,
YCHEM_NL(1)%LNEGFIX=.TRUE.,
YCHEM_NL(1)%IGRIBTC=210206,
YCHEM_NL(1)%IGRIBDV=221001,
YCHEM_NL(1)%HENRYA=1.0e-2,
YCHEM_NL(1)%HENRYB=2800.0,
YCHEM_NL(1)%LMASSFIX=.TRUE.,
YCHEM_NL(1)%BETAMFBC=-999.9,
YCHEM_NL(1)%LASSIM=.TRUE.,
YCHEM_NL(1)%LADV5=.TRUE.,
YCHEM_NL(2)%CNAME='NOx',
YCHEM_NL(2)%NREQIN=1,
YCHEM_NL(2)%RMOLMASS=14.0,
YCHEM_NL(2)%IGRBCODE=210129,
YCHEM_NL(2)%LNEGFIX=.TRUE.,
YCHEM_NL(2)%IGRIBTC=210130,
YCHEM_NL(2)%LMASSFIX=.TRUE.,
YCHEM_NL(2)%BETAMFBC=-999.9,
YCHEM_NL(2)%LASSIM=.FALSE.,
YCHEM_NL(3)%CNAME='H2O2',
YCHEM_NL(3)%NREQIN=1,
YCHEM_NL(3)%RMOLMASS=34.0,
YCHEM_NL(3)%IGRBCODE=217003,
YCHEM_NL(3)%LNEGFIX=.TRUE.,
YCHEM_NL(3)%IGRIBTC=218003,
YCHEM_NL(3)%IGRIBDV=221003,
YCHEM_NL(3)%HENRYA=8.3e4,
YCHEM_NL(3)%HENRYB=7600.0,
YCHEM_NL(3)%LMASSFIX=.TRUE.,
YCHEM_NL(3)%BETAMFBC=-999.9,
YCHEM_NL(3)%LASSIM=.FALSE.,
YCHEM_NL(4)%CNAME='CH4',
YCHEM_NL(4)%NREQIN=1,
YCHEM_NL(4)%RMOLMASS=16.0,
YCHEM_NL(4)%IGRBCODE=217004,
YCHEM_NL(4)%LNEGFIX=.TRUE.,
YCHEM_NL(4)%IGRIBTC=218004,
YCHEM_NL(4)%LMASSFIX=.TRUE.,
YCHEM_NL(4)%BETAMFBC=-999.9,
YCHEM_NL(4)%LASSIM=.FALSE.,
YCHEM_NL(5)%CNAME='CO',
YCHEM_NL(5)%NREQIN=1,
YCHEM_NL(5)%RMOLMASS=28.0,
YCHEM_NL(5)%IGRBCODE=210123,
YCHEM_NL(5)%LNEGFIX=.TRUE.,
YCHEM_NL(5)%IGRIBTC=210127,
YCHEM_NL(5)%IGRIBDV=221005,
YCHEM_NL(5)%HENRYA=9.7e-4,
YCHEM_NL(5)%HENRYB=1300.0,
YCHEM_NL(5)%LMASSFIX=.TRUE.,
YCHEM_NL(5)%BETAMFBC=-999.9,
YCHEM_NL(5)%LASSIM=.TRUE.,
YCHEM_NL(5)%LADV5=.TRUE.,
YCHEM_NL(6)%CNAME='HNO3',
YCHEM_NL(6)%NREQIN=1,
YCHEM_NL(6)%RMOLMASS=63.0,
YCHEM_NL(6)%IGRBCODE=217006,
YCHEM_NL(6)%LNEGFIX=.TRUE.,
YCHEM_NL(6)%IGRIBTC=218006,
YCHEM_NL(6)%IGRIBDV=221006,
YCHEM_NL(6)%HENRYA=3.2e11,
YCHEM_NL(6)%HENRYB=8700.0,
YCHEM_NL(6)%LMASSFIX=.TRUE.,
YCHEM_NL(6)%BETAMFBC=-999.9,
YCHEM_NL(6)%LASSIM=.FALSE.,
YCHEM_NL(7)%CNAME='CH3OOH',
YCHEM_NL(7)%NREQIN=1,
YCHEM_NL(7)%RMOLMASS=48.0,
YCHEM_NL(7)%IGRBCODE=217007,
YCHEM_NL(7)%LNEGFIX=.TRUE.,
YCHEM_NL(7)%IGRIBTC=218007,
YCHEM_NL(7)%IGRIBDV=221007,
YCHEM_NL(7)%HENRYA=2.9e2,
YCHEM_NL(7)%HENRYB=5200.0,
YCHEM_NL(7)%LMASSFIX=.TRUE.,
YCHEM_NL(7)%BETAMFBC=-999.9,
YCHEM_NL(7)%LASSIM=.FALSE.,
YCHEM_NL(8)%CNAME='CH2O',
YCHEM_NL(8)%NREQIN=1,
YCHEM_NL(8)%RMOLMASS=30.0,
YCHEM_NL(8)%IGRBCODE=210124,
YCHEM_NL(8)%LNEGFIX=.TRUE.,
YCHEM_NL(8)%IGRIBTC=210128,
YCHEM_NL(8)%IGRIBDV=221008,
YCHEM_NL(8)%HENRYA=3.2e3,
YCHEM_NL(8)%HENRYB=6800.0,
YCHEM_NL(8)%LMASSFIX=.TRUE.,
YCHEM_NL(8)%BETAMFBC=-999.9,
YCHEM_NL(8)%LASSIM=.TRUE.,
YCHEM_NL(8)%LADV5=.TRUE.,
YCHEM_NL(9)%CNAME='PAR',
YCHEM_NL(9)%NREQIN=1,
YCHEM_NL(9)%RMOLMASS=12.0,
YCHEM_NL(9)%IGRBCODE=217009,
YCHEM_NL(9)%LNEGFIX=.TRUE.,
YCHEM_NL(9)%IGRIBTC=218009,
YCHEM_NL(9)%LMASSFIX=.TRUE.,
YCHEM_NL(9)%BETAMFBC=-999.9,
YCHEM_NL(9)%LASSIM=.FALSE.,
YCHEM_NL(10)%CNAME='C2H4',
YCHEM_NL(10)%NREQIN=1,
YCHEM_NL(10)%RMOLMASS=28.0,
YCHEM_NL(10)%IGRBCODE=217010,
YCHEM_NL(10)%LNEGFIX=.TRUE.,
YCHEM_NL(10)%IGRIBTC=218010,
YCHEM_NL(10)%LMASSFIX=.TRUE.,
YCHEM_NL(10)%BETAMFBC=-999.9,
YCHEM_NL(10)%LASSIM=.FALSE.,
YCHEM_NL(11)%CNAME='OLE',
YCHEM_NL(11)%NREQIN=1,
YCHEM_NL(11)%RMOLMASS=24.0,
YCHEM_NL(11)%IGRBCODE=217011,
YCHEM_NL(11)%LNEGFIX=.TRUE.,
YCHEM_NL(11)%IGRIBTC=218011,
YCHEM_NL(11)%LMASSFIX=.TRUE.,
YCHEM_NL(11)%BETAMFBC=-999.9,
YCHEM_NL(11)%LASSIM=.FALSE.,
YCHEM_NL(12)%CNAME='ALD2',
YCHEM_NL(12)%NREQIN=1,
YCHEM_NL(12)%RMOLMASS=24.0,
YCHEM_NL(12)%IGRBCODE=217012,
YCHEM_NL(12)%LNEGFIX=.TRUE.,
YCHEM_NL(12)%IGRIBTC=218012,
YCHEM_NL(12)%IGRIBDV=221012,
YCHEM_NL(12)%HENRYA=17.0,
YCHEM_NL(12)%HENRYB=5000.0,
YCHEM_NL(12)%LMASSFIX=.TRUE.,
YCHEM_NL(12)%BETAMFBC=-999.9,
YCHEM_NL(12)%LASSIM=.FALSE.,
YCHEM_NL(13)%CNAME='PAN',
YCHEM_NL(13)%NREQIN=1,
YCHEM_NL(13)%RMOLMASS=121.0,
YCHEM_NL(13)%IGRBCODE=217013,
YCHEM_NL(13)%LNEGFIX=.TRUE.,
YCHEM_NL(13)%IGRIBTC=218013,
YCHEM_NL(13)%IGRIBDV=221013,
YCHEM_NL(13)%HENRYA=2.9e+0,
YCHEM_NL(13)%HENRYB=5700.0,
YCHEM_NL(13)%LMASSFIX=.TRUE.,
YCHEM_NL(13)%BETAMFBC=-999.9,
YCHEM_NL(13)%LASSIM=.FALSE.,
YCHEM_NL(14)%CNAME='ROOH',
YCHEM_NL(14)%NREQIN=1,
YCHEM_NL(14)%RMOLMASS=47.0,
YCHEM_NL(14)%IGRBCODE=217014,
YCHEM_NL(14)%LNEGFIX=.TRUE.,
YCHEM_NL(14)%IGRIBTC=218014,
YCHEM_NL(14)%IGRIBDV=221014,
YCHEM_NL(14)%HENRYA=340.0,
YCHEM_NL(14)%HENRYB=6000.0,
YCHEM_NL(14)%LMASSFIX=.TRUE.,
YCHEM_NL(14)%BETAMFBC=-999.9,
YCHEM_NL(14)%LASSIM=.FALSE.,
YCHEM_NL(15)%CNAME='ONIT',
YCHEM_NL(15)%NREQIN=1,
YCHEM_NL(15)%RMOLMASS=77.0,
YCHEM_NL(15)%IGRBCODE=217015,
YCHEM_NL(15)%LNEGFIX=.TRUE.,
YCHEM_NL(15)%IGRIBTC=218015,
YCHEM_NL(15)%IGRIBDV=221015,
YCHEM_NL(15)%HENRYA=1.0e3,
YCHEM_NL(15)%HENRYB=6485,
YCHEM_NL(15)%LMASSFIX=.TRUE.,
YCHEM_NL(15)%BETAMFBC=-999.9,
YCHEM_NL(15)%LASSIM=.FALSE.,
YCHEM_NL(16)%CNAME='C5H8',
YCHEM_NL(16)%NREQIN=1,
YCHEM_NL(16)%RMOLMASS=68.1,
YCHEM_NL(16)%IGRBCODE=217016,
YCHEM_NL(16)%LNEGFIX=.TRUE.,
YCHEM_NL(16)%IGRIBTC=218016,
YCHEM_NL(16)%IGRIBDV=221016,
YCHEM_NL(16)%HENRYA=1.3e-2,
YCHEM_NL(16)%HENRYB=0.0,
YCHEM_NL(16)%LMASSFIX=.TRUE.,
YCHEM_NL(16)%BETAMFBC=-999.9,
YCHEM_NL(16)%LASSIM=.FALSE.,
YCHEM_NL(17)%CNAME='SO2',
YCHEM_NL(17)%NREQIN=1,
YCHEM_NL(17)%RMOLMASS=64.1,
YCHEM_NL(17)%IGRBCODE=210122,
YCHEM_NL(17)%LNEGFIX=.TRUE.,
YCHEM_NL(17)%IGRIBTC=210126,
YCHEM_NL(17)%IGRIBDV=221017,
YCHEM_NL(17)%HENRYA=1.0e5,
YCHEM_NL(17)%HENRYB=3000.0,
YCHEM_NL(17)%LMASSFIX=.TRUE.,
YCHEM_NL(17)%BETAMFBC=-999.9,
YCHEM_NL(17)%LASSIM=.TRUE.,
YCHEM_NL(17)%LADV5=.TRUE.,
YCHEM_NL(18)%CNAME='DMS',
YCHEM_NL(18)%NREQIN=1,
YCHEM_NL(18)%RMOLMASS=62.1,
YCHEM_NL(18)%IGRBCODE=217018,
YCHEM_NL(18)%LNEGFIX=.TRUE.,
YCHEM_NL(18)%IGRIBTC=218018,
YCHEM_NL(18)%LMASSFIX=.TRUE.,
YCHEM_NL(18)%BETAMFBC=-999.9,
YCHEM_NL(18)%LASSIM=.FALSE.,
YCHEM_NL(19)%CNAME='NH3',
YCHEM_NL(19)%NREQIN=1,
YCHEM_NL(19)%RMOLMASS=17.0,
YCHEM_NL(19)%IGRBCODE=217019,
YCHEM_NL(19)%LNEGFIX=.TRUE.,
YCHEM_NL(19)%IGRIBTC=218019,
YCHEM_NL(19)%IGRIBDV=221019,
YCHEM_NL(19)%HENRYA=59.0,
YCHEM_NL(19)%HENRYB=4200.0,
YCHEM_NL(19)%LMASSFIX=.TRUE.,
YCHEM_NL(19)%BETAMFBC=-999.9,
YCHEM_NL(19)%LASSIM=.FALSE.,
YCHEM_NL(20)%CNAME='SO4',
YCHEM_NL(20)%NREQIN=-1,
YCHEM_NL(20)%RMOLMASS=96.1,
YCHEM_NL(20)%IGRBCODE=217020,
YCHEM_NL(20)%LNEGFIX=.FALSE.,
YCHEM_NL(20)%IGRIBTC=218020,
YCHEM_NL(20)%LMASSFIX=.FALSE.,
YCHEM_NL(20)%BETAMFBC=-999.9,
YCHEM_NL(20)%LASSIM=.FALSE.,
YCHEM_NL(21)%CNAME='NH4',
YCHEM_NL(21)%NREQIN=1,
YCHEM_NL(21)%RMOLMASS=18.0,
YCHEM_NL(21)%IGRBCODE=217021,
YCHEM_NL(21)%LNEGFIX=.TRUE.,
YCHEM_NL(21)%IGRIBTC=218021,
YCHEM_NL(21)%IGRIBDV=221021,
YCHEM_NL(21)%HENRYA=3.2e11,
YCHEM_NL(21)%HENRYB=8700.0,
YCHEM_NL(21)%LMASSFIX=.TRUE.,
YCHEM_NL(21)%BETAMFBC=-999.9,
YCHEM_NL(21)%LASSIM=.FALSE.,
YCHEM_NL(22)%CNAME='MSA',
YCHEM_NL(22)%NREQIN=1,
YCHEM_NL(22)%RMOLMASS=96.1,
YCHEM_NL(22)%IGRBCODE=217022,
YCHEM_NL(22)%LNEGFIX=.TRUE.,
YCHEM_NL(22)%IGRIBTC=218022,
YCHEM_NL(22)%HENRYA=3.2e11,
YCHEM_NL(22)%HENRYB=8700.0,
YCHEM_NL(22)%LMASSFIX=.TRUE.,
YCHEM_NL(22)%BETAMFBC=-999.9,
YCHEM_NL(22)%LASSIM=.FALSE.,
YCHEM_NL(23)%CNAME='CH3COCHO',
YCHEM_NL(23)%NREQIN=1,
YCHEM_NL(23)%RMOLMASS=72.1,
YCHEM_NL(23)%IGRBCODE=217023,
YCHEM_NL(23)%LNEGFIX=.TRUE.,
YCHEM_NL(23)%IGRIBTC=218023,
YCHEM_NL(23)%IGRIBDV=221023,
YCHEM_NL(23)%HENRYA=3.4e4,
YCHEM_NL(23)%HENRYB=7500.0,
YCHEM_NL(23)%LMASSFIX=.TRUE.,
YCHEM_NL(23)%BETAMFBC=-999.9,
YCHEM_NL(23)%LASSIM=.FALSE.,
YCHEM_NL(24)%CNAME='O3S',
YCHEM_NL(24)%NREQIN=1,
YCHEM_NL(24)%RMOLMASS=48.0,
YCHEM_NL(24)%IGRBCODE=217024,
YCHEM_NL(24)%LNEGFIX=.TRUE.,
YCHEM_NL(24)%IGRIBTC=218024,
YCHEM_NL(24)%IGRIBDV=221024,
YCHEM_NL(24)%HENRYA=1.0e-2,
YCHEM_NL(24)%HENRYB=2800.0,
YCHEM_NL(24)%LMASSFIX=.TRUE.,
YCHEM_NL(24)%BETAMFBC=-999.9,
YCHEM_NL(24)%LASSIM=.FALSE.,
YCHEM_NL(25)%CNAME='Rn',
YCHEM_NL(25)%NREQIN=1,
YCHEM_NL(25)%RMOLMASS=222.0,
YCHEM_NL(25)%IGRBCODE=210181,
YCHEM_NL(25)%LNEGFIX=.TRUE.,
YCHEM_NL(25)%IGRIBTC=210183,
YCHEM_NL(25)%LMASSFIX=.TRUE.,
YCHEM_NL(25)%BETAMFBC=-999.9,
YCHEM_NL(25)%LASSIM=.FALSE.,
YCHEM_NL(26)%CNAME='Pb',
YCHEM_NL(26)%NREQIN=1,
YCHEM_NL(26)%RMOLMASS=210.0,
YCHEM_NL(26)%IGRBCODE=217026,
YCHEM_NL(26)%LNEGFIX=.TRUE.,
YCHEM_NL(26)%IGRIBTC=218026,
YCHEM_NL(26)%HENRYA=3.2e11,
YCHEM_NL(26)%HENRYB=8700.0,
YCHEM_NL(26)%LMASSFIX=.TRUE.,
YCHEM_NL(26)%BETAMFBC=-999.9,
YCHEM_NL(26)%LASSIM=.FALSE.,
YCHEM_NL(27)%CNAME='NO',
YCHEM_NL(27)%NREQIN=1,
YCHEM_NL(27)%RMOLMASS=30.0,
YCHEM_NL(27)%IGRBCODE=217027,
YCHEM_NL(27)%LNEGFIX=.TRUE.,
YCHEM_NL(27)%IGRIBTC=218027,
YCHEM_NL(27)%IGRIBDV=221027,
YCHEM_NL(27)%HENRYA=1.9e-3,
YCHEM_NL(27)%HENRYB=1600.0,
YCHEM_NL(27)%LMASSFIX=.TRUE.,
YCHEM_NL(27)%BETAMFBC=-999.9,
YCHEM_NL(27)%LMASSFIX=.FALSE.,
YCHEM_NL(27)%LADV=.TRUE.,
YCHEM_NL(27)%LASSIM=.FALSE.,
YCHEM_NL(28)%CNAME='HO2',
YCHEM_NL(28)%NREQIN=1,
YCHEM_NL(28)%RMOLMASS=33.0,
YCHEM_NL(28)%IGRBCODE=217028,
YCHEM_NL(28)%LNEGFIX=.TRUE.,
YCHEM_NL(28)%IGRIBTC=218028,
YCHEM_NL(28)%IGRIBDV=221028,
YCHEM_NL(28)%HENRYA=6.8e2,
YCHEM_NL(28)%HENRYB=0.0,
YCHEM_NL(28)%LMASSFIX=.FALSE.,
YCHEM_NL(28)%LADV=.FALSE.,
YCHEM_NL(28)%LASSIM=.FALSE.,
YCHEM_NL(29)%CNAME='CH3O2',
YCHEM_NL(29)%NREQIN=1,
YCHEM_NL(29)%RMOLMASS=47.0
YCHEM_NL(29)%IGRBCODE=217029,
YCHEM_NL(29)%LNEGFIX=.TRUE.,
YCHEM_NL(29)%IGRIBTC=218029,
YCHEM_NL(29)%IGRIBDV=221029,
YCHEM_NL(29)%HENRYA=1.5e1,
YCHEM_NL(29)%HENRYB=3700.0,
YCHEM_NL(29)%LMASSFIX=.FALSE.,
YCHEM_NL(29)%LADV=.FALSE.,
YCHEM_NL(29)%LASSIM=.FALSE.,
YCHEM_NL(30)%CNAME='OH',
YCHEM_NL(30)%NREQIN=1,
YCHEM_NL(30)%RMOLMASS=17.0,
YCHEM_NL(30)%IGRBCODE=217030,
YCHEM_NL(30)%LNEGFIX=.TRUE.,
YCHEM_NL(30)%IGRIBTC=218030,
YCHEM_NL(30)%LMASSFIX=.FALSE.,
YCHEM_NL(30)%LADV=.FALSE.,
YCHEM_NL(30)%LASSIM=.FALSE.,
YCHEM_NL(31)%CNAME='NO2',
YCHEM_NL(31)%NREQIN=1,
YCHEM_NL(31)%RMOLMASS=46.0,
YCHEM_NL(31)%IGRBCODE=210121,
YCHEM_NL(31)%LNEGFIX=.TRUE.,
YCHEM_NL(31)%IGRIBTC=210125,
YCHEM_NL(31)%IGRIBDV=221031,
YCHEM_NL(31)%HENRYA=1.2e-2,
YCHEM_NL(31)%HENRYB=2400.0,
YCHEM_NL(31)%LMASSFIX=.TRUE.,
YCHEM_NL(31)%BETAMFBC=-999.9,
YCHEM_NL(31)%LMASSFIX=.FALSE.,
YCHEM_NL(31)%LADV=.TRUE.,
YCHEM_NL(31)%LASSIM=.TRUE.,
YCHEM_NL(31)%LADV5=.TRUE.,
YCHEM_NL(32)%CNAME='NO3',
YCHEM_NL(32)%NREQIN=1,
YCHEM_NL(32)%RMOLMASS=62.0,
YCHEM_NL(32)%IGRBCODE=217032,
YCHEM_NL(32)%LNEGFIX=.TRUE.,
YCHEM_NL(32)%IGRIBTC=218032,
YCHEM_NL(32)%IGRIBDV=221032,
YCHEM_NL(32)%HENRYA=3.8e-2,
YCHEM_NL(32)%HENRYB=0.,
YCHEM_NL(32)%LMASSFIX=.TRUE.,
YCHEM_NL(32)%BETAMFBC=-999.9,
YCHEM_NL(32)%LMASSFIX=.FALSE.,
YCHEM_NL(32)%LADV=.TRUE.,
YCHEM_NL(32)%LASSIM=.FALSE.,
YCHEM_NL(33)%CNAME='N2O5',
YCHEM_NL(33)%NREQIN=1,
YCHEM_NL(33)%RMOLMASS=108.0,
YCHEM_NL(33)%IGRBCODE=217033,
YCHEM_NL(33)%LNEGFIX=.TRUE.,
YCHEM_NL(33)%IGRIBTC=218033,
YCHEM_NL(33)%IGRIBDV=221033,
YCHEM_NL(33)%HENRYA=2.1e+1,
YCHEM_NL(33)%HENRYB=3400.0,
YCHEM_NL(33)%LMASSFIX=.TRUE.,
YCHEM_NL(33)%BETAMFBC=-999.9,
YCHEM_NL(33)%LASSIM=.FALSE.,
YCHEM_NL(34)%CNAME='HO2NO2',
YCHEM_NL(34)%NREQIN=1,
YCHEM_NL(34)%RMOLMASS=79.0,
YCHEM_NL(34)%IGRBCODE=217034,
YCHEM_NL(34)%LNEGFIX=.TRUE.,
YCHEM_NL(34)%IGRIBTC=218034,
YCHEM_NL(34)%IGRIBDV=221034,
YCHEM_NL(34)%HENRYA=1.2e+4,
YCHEM_NL(34)%HENRYB=6900.0,
YCHEM_NL(34)%LMASSFIX=.TRUE.,
YCHEM_NL(34)%BETAMFBC=-999.9,
YCHEM_NL(34)%LASSIM=.FALSE.,
YCHEM_NL(35)%CNAME='C2O3',
YCHEM_NL(35)%NREQIN=1,
YCHEM_NL(35)%RMOLMASS=75.0,
YCHEM_NL(35)%IGRBCODE=217035,
YCHEM_NL(35)%LNEGFIX=.TRUE.,
YCHEM_NL(35)%IGRIBTC=218035,
YCHEM_NL(35)%LMASSFIX=.FALSE.,
YCHEM_NL(35)%LADV=.FALSE.,
YCHEM_NL(35)%LASSIM=.FALSE.,
YCHEM_NL(36)%CNAME='ROR',
YCHEM_NL(36)%NREQIN=1,
YCHEM_NL(36)%RMOLMASS=28.0,
YCHEM_NL(36)%IGRBCODE=217036,
YCHEM_NL(36)%LNEGFIX=.TRUE.,
YCHEM_NL(36)%IGRIBTC=218036,
YCHEM_NL(36)%LMASSFIX=.FALSE.,
YCHEM_NL(36)%LADV=.FALSE.,
YCHEM_NL(36)%LASSIM=.FALSE.,
YCHEM_NL(37)%CNAME='RXPAR',
YCHEM_NL(37)%NREQIN=1,
YCHEM_NL(37)%RMOLMASS=12.0,
YCHEM_NL(37)%IGRBCODE=217037,
YCHEM_NL(37)%LNEGFIX=.TRUE.,
YCHEM_NL(37)%IGRIBTC=218037,
YCHEM_NL(37)%LMASSFIX=.FALSE.,
YCHEM_NL(37)%LADV=.FALSE.,
YCHEM_NL(37)%LASSIM=.FALSE.,
YCHEM_NL(38)%CNAME='XO2',
YCHEM_NL(38)%NREQIN=1,
YCHEM_NL(38)%RMOLMASS=44.0,
YCHEM_NL(38)%IGRBCODE=217038,
YCHEM_NL(38)%LNEGFIX=.TRUE.,
YCHEM_NL(38)%IGRIBTC=218038,
YCHEM_NL(38)%LMASSFIX=.FALSE.,
YCHEM_NL(38)%LADV=.FALSE.,
YCHEM_NL(38)%LASSIM=.FALSE.,
YCHEM_NL(39)%CNAME='XO2N',
YCHEM_NL(39)%NREQIN=1,
YCHEM_NL(39)%RMOLMASS=44.0,
YCHEM_NL(39)%IGRBCODE=217039,
YCHEM_NL(39)%LNEGFIX=.TRUE.,
YCHEM_NL(39)%IGRIBTC=218039,
YCHEM_NL(39)%LMASSFIX=.FALSE.,
YCHEM_NL(39)%LADV=.FALSE.,
YCHEM_NL(39)%LASSIM=.FALSE.,
YCHEM_NL(40)%CNAME='NH2',
YCHEM_NL(40)%NREQIN=1,
YCHEM_NL(40)%RMOLMASS=16.0,
YCHEM_NL(40)%IGRBCODE=217040,
YCHEM_NL(40)%LNEGFIX=.TRUE.,
YCHEM_NL(40)%IGRIBTC=218040,
YCHEM_NL(40)%LMASSFIX=.FALSE.,
YCHEM_NL(40)%LADV=.FALSE.,
YCHEM_NL(40)%LASSIM=.FALSE.,
YCHEM_NL(41)%CNAME='PSC',
YCHEM_NL(41)%NREQIN=0,
YCHEM_NL(41)%RMOLMASS=1.0,
YCHEM_NL(41)%IGRBCODE=217041,
YCHEM_NL(41)%LNEGFIX=.TRUE.,
YCHEM_NL(41)%IGRIBTC=218041,
YCHEM_NL(41)%LMASSFIX=.TRUE.,
YCHEM_NL(41)%BETAMFBC=-999.9,
YCHEM_NL(41)%LMASSFIX=.FALSE.,
YCHEM_NL(41)%REFVALI=0.0,
YCHEM_NL(41)%NREQIN=-1,
YCHEM_NL(41)%LADV=.FALSE.,
YCHEM_NL(41)%LASSIM=.FALSE.,
YCHEM_NL(42)%CNAME='CH3OH',
YCHEM_NL(42)%NREQIN=1,
YCHEM_NL(42)%RMOLMASS=31.01,
YCHEM_NL(42)%IGRBCODE=217042,
YCHEM_NL(42)%LNEGFIX=.TRUE.,
YCHEM_NL(42)%IGRIBTC=218042,
YCHEM_NL(42)%IGRIBDV=221042,
YCHEM_NL(42)%HENRYA=200.0,
YCHEM_NL(42)%HENRYB=5600.0,
YCHEM_NL(42)%LMASSFIX=.TRUE.,
YCHEM_NL(42)%BETAMFBC=-999.9,
YCHEM_NL(42)%LASSIM=.FALSE.,
YCHEM_NL(43)%CNAME='HCOOH',
YCHEM_NL(43)%NREQIN=1,
YCHEM_NL(43)%RMOLMASS=46.01,
YCHEM_NL(43)%IGRBCODE=217043,
YCHEM_NL(43)%LNEGFIX=.TRUE.,
YCHEM_NL(43)%IGRIBTC=218043,
YCHEM_NL(43)%IGRIBDV=221043,
YCHEM_NL(43)%HENRYA=8.8e3,
YCHEM_NL(43)%HENRYB=6100.0,
YCHEM_NL(43)%LMASSFIX=.TRUE.,
YCHEM_NL(43)%BETAMFBC=-999.9,
YCHEM_NL(43)%LASSIM=.FALSE.,
YCHEM_NL(44)%CNAME='MCOOH',
YCHEM_NL(44)%NREQIN=1,
YCHEM_NL(44)%RMOLMASS=62.02,
YCHEM_NL(44)%IGRBCODE=217044,
YCHEM_NL(44)%LNEGFIX=.TRUE.,
YCHEM_NL(44)%IGRIBTC=218044,
YCHEM_NL(44)%IGRIBDV=221044,
YCHEM_NL(44)%HENRYA=4.1e3,
YCHEM_NL(44)%HENRYB=6300.0,
YCHEM_NL(44)%LMASSFIX=.TRUE.,
YCHEM_NL(44)%BETAMFBC=-999.9,
YCHEM_NL(44)%LASSIM=.FALSE.,
YCHEM_NL(45)%CNAME='C2H6',
YCHEM_NL(45)%NREQIN=1,
YCHEM_NL(45)%RMOLMASS=30.02,
YCHEM_NL(45)%IGRBCODE=217045,
YCHEM_NL(45)%LNEGFIX=.TRUE.,
YCHEM_NL(45)%IGRIBTC=218045,
YCHEM_NL(45)%IGRIBDV=221045,
YCHEM_NL(45)%HENRYA=1.9e-3,
YCHEM_NL(45)%HENRYB=2400.0,
YCHEM_NL(45)%LMASSFIX=.TRUE.,
YCHEM_NL(45)%BETAMFBC=-999.9,
YCHEM_NL(45)%LASSIM=.FALSE.,
YCHEM_NL(46)%CNAME='C2H5OH',
YCHEM_NL(46)%NREQIN=1,
YCHEM_NL(46)%RMOLMASS=46.02,
YCHEM_NL(46)%IGRBCODE=217046,
YCHEM_NL(46)%LNEGFIX=.TRUE.,
YCHEM_NL(46)%IGRIBTC=218046,
YCHEM_NL(46)%IGRIBDV=221046,
YCHEM_NL(46)%HENRYA=190.0,
YCHEM_NL(46)%HENRYB=6400.0,
YCHEM_NL(46)%LMASSFIX=.TRUE.,
YCHEM_NL(46)%BETAMFBC=-999.9,
YCHEM_NL(46)%LASSIM=.FALSE.,
YCHEM_NL(47)%CNAME='C3H8',
YCHEM_NL(47)%NREQIN=1,
YCHEM_NL(47)%RMOLMASS=44.03,
YCHEM_NL(47)%IGRBCODE=217047,
YCHEM_NL(47)%LNEGFIX=.TRUE.,
YCHEM_NL(47)%IGRIBTC=218047,
YCHEM_NL(47)%LMASSFIX=.TRUE.,
YCHEM_NL(47)%BETAMFBC=-999.9,
YCHEM_NL(47)%LASSIM=.FALSE.,
YCHEM_NL(48)%CNAME='C3H6',
YCHEM_NL(48)%NREQIN=1,
YCHEM_NL(48)%RMOLMASS=42.03,
YCHEM_NL(48)%IGRBCODE=217048,
YCHEM_NL(48)%LNEGFIX=.TRUE.,
YCHEM_NL(48)%IGRIBTC=218048,
YCHEM_NL(48)%LMASSFIX=.TRUE.,
YCHEM_NL(48)%BETAMFBC=-999.9,
YCHEM_NL(48)%LASSIM=.FALSE.,
YCHEM_NL(49)%CNAME='C10H16',
YCHEM_NL(49)%NREQIN=1,
YCHEM_NL(49)%RMOLMASS=136.0,
YCHEM_NL(49)%IGRBCODE=217049,
YCHEM_NL(49)%LNEGFIX=.TRUE.,
YCHEM_NL(49)%IGRIBTC=218049,
YCHEM_NL(49)%LMASSFIX=.TRUE.,
YCHEM_NL(49)%BETAMFBC=-999.9,
YCHEM_NL(49)%LASSIM=.FALSE.,
YCHEM_NL(50)%CNAME='ISPD',
YCHEM_NL(50)%NREQIN=1,
YCHEM_NL(50)%RMOLMASS=70.0,
YCHEM_NL(50)%IGRBCODE=217050,
YCHEM_NL(50)%LNEGFIX=.TRUE.,
YCHEM_NL(50)%IGRIBTC=218050,
YCHEM_NL(50)%IGRIBDV=221050,
YCHEM_NL(50)%HENRYA=4.3,
YCHEM_NL(50)%HENRYB=5300.0,
YCHEM_NL(50)%LMASSFIX=.TRUE.,
YCHEM_NL(50)%BETAMFBC=-999.9,
YCHEM_NL(50)%LASSIM=.FALSE.,
YCHEM_NL(51)%CNAME='NO3_A',
YCHEM_NL(51)%NREQIN=1,
YCHEM_NL(51)%RMOLMASS=62.0,
YCHEM_NL(51)%IGRBCODE=217051,
YCHEM_NL(51)%LNEGFIX=.TRUE.,
YCHEM_NL(51)%IGRIBTC=218051,
YCHEM_NL(51)%IGRIBDV=221051,
YCHEM_NL(51)%HENRYA=3.2e11,
YCHEM_NL(51)%HENRYB=8700.0,
YCHEM_NL(51)%LMASSFIX=.TRUE.,
YCHEM_NL(51)%BETAMFBC=-999.9,
YCHEM_NL(51)%LASSIM=.FALSE.,
YCHEM_NL(52)%CNAME='CH3COCH3',
YCHEM_NL(52)%NREQIN=1,
YCHEM_NL(52)%RMOLMASS=58.0,
YCHEM_NL(52)%IGRBCODE=217052,
YCHEM_NL(52)%LNEGFIX=.TRUE.,
YCHEM_NL(52)%IGRIBTC=218052,
YCHEM_NL(52)%IGRIBDV=221052,
YCHEM_NL(52)%HENRYA=27.0,
YCHEM_NL(52)%HENRYB=5500.0,
YCHEM_NL(52)%LMASSFIX=.TRUE.,
YCHEM_NL(52)%BETAMFBC=-999.9,
YCHEM_NL(52)%LASSIM=.FALSE.,
YCHEM_NL(53)%CNAME='ACO2',
YCHEM_NL(53)%NREQIN=1,
YCHEM_NL(53)%RMOLMASS=58.0,
YCHEM_NL(53)%IGRBCODE=217053,
YCHEM_NL(53)%LNEGFIX=.TRUE.,
YCHEM_NL(53)%IGRIBTC=218053,
YCHEM_NL(53)%LMASSFIX=.FALSE.,
YCHEM_NL(53)%LADV=.FALSE.,
YCHEM_NL(53)%LASSIM=.FALSE.,
YCHEM_NL(54)%CNAME='IC3H7O2',
YCHEM_NL(54)%NREQIN=1,
YCHEM_NL(54)%RMOLMASS=75.0,
YCHEM_NL(54)%IGRBCODE=217054,
YCHEM_NL(54)%LNEGFIX=.TRUE.,
YCHEM_NL(54)%IGRIBTC=218054,
YCHEM_NL(54)%LMASSFIX=.FALSE.,
YCHEM_NL(54)%LADV=.FALSE.,
YCHEM_NL(54)%LASSIM=.FALSE.,
YCHEM_NL(55)%CNAME='HYPROPO2',
YCHEM_NL(55)%NREQIN=1,
YCHEM_NL(55)%RMOLMASS=91.0,
YCHEM_NL(55)%IGRBCODE=217055,
YCHEM_NL(55)%LNEGFIX=.TRUE.,
YCHEM_NL(55)%IGRIBTC=218055,
YCHEM_NL(55)%LMASSFIX=.FALSE.,
YCHEM_NL(55)%LADV=.FALSE.,
YCHEM_NL(55)%LASSIM=.FALSE.,
YCHEM_NL(56)%CNAME='SO3',
YCHEM_NL(56)%NREQIN=0,
YCHEM_NL(56)%RMOLMASS=80.0,
YCHEM_NL(56)%IGRBCODE=217189,
YCHEM_NL(56)%LNEGFIX=.TRUE.,
YCHEM_NL(56)%IGRIBTC=218189,
YCHEM_NL(56)%LMASSFIX=.TRUE.,
YCHEM_NL(56)%BETAMFBC=-999.9,
YCHEM_NL(56)%LASSIM=.FALSE.,
YCHEM_NL(57)%CNAME='CH3O2NO2',
YCHEM_NL(57)%NREQIN=0,
YCHEM_NL(57)%RMOLMASS=93.0,
YCHEM_NL(57)%IGRBCODE=216200,
YCHEM_NL(57)%LNEGFIX=.TRUE.,
YCHEM_NL(57)%IGRIBTC=216201,
YCHEM_NL(57)%LADV=.TRUE.,
YCHEM_NL(57)%LMASSFIX=.TRUE.,
YCHEM_NL(57)%BETAMFBC=-999.9,
YCHEM_NL(57)%LASSIM=.FALSE.,
YCHEM_NL(58)%CNAME='HONO',
YCHEM_NL(58)%NREQIN=0,
YCHEM_NL(58)%RMOLMASS=47.0,
YCHEM_NL(58)%IGRBCODE=217086,
YCHEM_NL(58)%LNEGFIX=.TRUE.,
YCHEM_NL(58)%IGRIBTC=218086,
!YCHEM_NL(58)%IGRIBDV=216185,
YCHEM_NL(58)%HENRYA=4.8e+1,
YCHEM_NL(58)%HENRYB=4800.0,
YCHEM_NL(58)%LADV=.TRUE.,
YCHEM_NL(58)%LMASSFIX=.TRUE.,
YCHEM_NL(58)%BETAMFBC=-999.9,
YCHEM_NL(58)%LASSIM=.FALSE.,
YCHEM_NL(59)%CNAME='HCN',
YCHEM_NL(59)%NREQIN=0,
YCHEM_NL(59)%RMOLMASS=27.0,
YCHEM_NL(59)%IGRBCODE=216203,
YCHEM_NL(59)%LNEGFIX=.TRUE.,
YCHEM_NL(59)%IGRIBTC=216204,
!YCHEM_NL(59)%IGRIBDV=216186,
YCHEM_NL(59)%HENRYA=12,
YCHEM_NL(59)%HENRYB=5000.,
YCHEM_NL(59)%LADV=.TRUE.,
YCHEM_NL(59)%LMASSFIX=.TRUE.,
YCHEM_NL(59)%BETAMFBC=-999.9,
YCHEM_NL(59)%LASSIM=.FALSE.,
YCHEM_NL(60)%CNAME='CH3CN',
YCHEM_NL(60)%NREQIN=0,
YCHEM_NL(60)%RMOLMASS=41.0,
YCHEM_NL(60)%IGRBCODE=216206,
YCHEM_NL(60)%LNEGFIX=.TRUE.,
YCHEM_NL(60)%IGRIBTC=216207,
!YCHEM_NL(60)%IGRIBDV=216187,
YCHEM_NL(60)%HENRYA=49,
YCHEM_NL(60)%HENRYB=4000.,
YCHEM_NL(60)%LADV=.TRUE.,
YCHEM_NL(60)%LMASSFIX=.TRUE.,
YCHEM_NL(60)%BETAMFBC=-999.9,
YCHEM_NL(60)%LASSIM=.FALSE.,
YCHEM_NL(61)%CNAME='XYL',
YCHEM_NL(61)%NREQIN=0,
YCHEM_NL(61)%RMOLMASS=106.0,
YCHEM_NL(61)%IGRBCODE=217100,
YCHEM_NL(61)%LNEGFIX=.TRUE.,
YCHEM_NL(61)%IGRIBTC=218100,
!YCHEM_NL(61)%IGRIBDV=216188,
YCHEM_NL(61)%HENRYA=0.14,
YCHEM_NL(61)%HENRYB=4200.0,
YCHEM_NL(61)%LADV=.TRUE.,
YCHEM_NL(61)%LMASSFIX=.TRUE.,
YCHEM_NL(61)%BETAMFBC=-999.9,
YCHEM_NL(61)%LASSIM=.FALSE.,
YCHEM_NL(62)%CNAME='TOL',
YCHEM_NL(62)%NREQIN=0,
YCHEM_NL(62)%RMOLMASS=92.0,
YCHEM_NL(62)%IGRBCODE=217099,
YCHEM_NL(62)%LNEGFIX=.TRUE.,
YCHEM_NL(62)%IGRIBTC=218099,
!YCHEM_NL(62)%IGRIBDV=216189,
YCHEM_NL(62)%HENRYA=0.15,
YCHEM_NL(62)%HENRYB=4300.0,
YCHEM_NL(62)%LADV=.TRUE.,
YCHEM_NL(62)%LMASSFIX=.TRUE.,
YCHEM_NL(62)%BETAMFBC=-999.9,
YCHEM_NL(62)%LASSIM=.FALSE.,
YCHEM_NL(63)%CNAME='AROO2',
YCHEM_NL(63)%NREQIN=0,
YCHEM_NL(63)%RMOLMASS=124.0,
YCHEM_NL(63)%IGRBCODE=216207,
YCHEM_NL(63)%LNEGFIX=.TRUE.,
YCHEM_NL(63)%IGRIBTC=216208,
YCHEM_NL(63)%LADV=.FALSE.,
YCHEM_NL(63)%LMASSFIX=.FALSE.,
YCHEM_NL(63)%LMASSFIX=.FALSE.,
YCHEM_NL(63)%LASSIM=.FALSE.,
YCHEM_NL(64)%CNAME='HPALD1',
YCHEM_NL(64)%NREQIN=0,
YCHEM_NL(64)%RMOLMASS=148.0,
YCHEM_NL(64)%IGRBCODE=216210,
YCHEM_NL(64)%LNEGFIX=.TRUE.,
YCHEM_NL(64)%IGRIBTC=216211,
YCHEM_NL(64)%HENRYA=17.0,
YCHEM_NL(64)%HENRYB=5000.0,
YCHEM_NL(64)%LADV=.TRUE.,
YCHEM_NL(64)%LMASSFIX=.TRUE.,
YCHEM_NL(64)%BETAMFBC=-999.9,
YCHEM_NL(64)%LASSIM=.FALSE.,
YCHEM_NL(65)%CNAME='HPALD2',
YCHEM_NL(65)%NREQIN=0,
YCHEM_NL(65)%RMOLMASS=148.0,
YCHEM_NL(65)%IGRBCODE=216213,
YCHEM_NL(65)%LNEGFIX=.TRUE.,
YCHEM_NL(65)%IGRIBTC=216214,
YCHEM_NL(65)%HENRYA=17.0,
YCHEM_NL(65)%HENRYB=5000.0,
YCHEM_NL(65)%LADV=.TRUE.,
YCHEM_NL(65)%LMASSFIX=.TRUE.,
YCHEM_NL(65)%BETAMFBC=-999.9,
YCHEM_NL(65)%LASSIM=.FALSE.,
YCHEM_NL(66)%CNAME='ISOPOOH',
YCHEM_NL(66)%NREQIN=0,
YCHEM_NL(66)%RMOLMASS=118.0,
YCHEM_NL(66)%IGRBCODE=217161,
YCHEM_NL(66)%LNEGFIX=.TRUE.,
YCHEM_NL(66)%IGRIBTC=218161,
!YCHEM_NL(66)%IGRIBDV=221161,
YCHEM_NL(66)%HENRYA=3.2E11,
YCHEM_NL(66)%HENRYB=8700.0,
YCHEM_NL(66)%LADV=.TRUE.,
YCHEM_NL(66)%LMASSFIX=.TRUE.,
YCHEM_NL(66)%BETAMFBC=-999.9,
YCHEM_NL(66)%LASSIM=.FALSE.,
YCHEM_NL(67)%CNAME='GLY',
YCHEM_NL(67)%NREQIN=0,
YCHEM_NL(67)%RMOLMASS=58.04,
YCHEM_NL(67)%IGRBCODE=217107,
YCHEM_NL(67)%LNEGFIX=.TRUE.,
YCHEM_NL(67)%IGRIBTC=218107,
!YCHEM_NL(67)%IGRIBDV=221107,
YCHEM_NL(67)%HENRYA=4.1E5,
YCHEM_NL(67)%HENRYB=7500.0,
YCHEM_NL(67)%LADV=.TRUE.,
YCHEM_NL(67)%LMASSFIX=.TRUE.,
YCHEM_NL(67)%BETAMFBC=-999.9,
YCHEM_NL(67)%LASSIM=.FALSE.,
YCHEM_NL(68)%CNAME='GLYALD',
YCHEM_NL(68)%NREQIN=0,
YCHEM_NL(68)%RMOLMASS=60.05,
YCHEM_NL(68)%IGRBCODE=217101,
YCHEM_NL(68)%LNEGFIX=.TRUE.,
YCHEM_NL(68)%IGRIBTC=218101,
!YCHEM_NL(68)%IGRIBDV=221101,
YCHEM_NL(68)%HENRYA=4.1E4,
YCHEM_NL(68)%HENRYB=4600.0,
YCHEM_NL(68)%LADV=.TRUE.,
YCHEM_NL(68)%LMASSFIX=.TRUE.,
YCHEM_NL(68)%BETAMFBC=-999.9,
YCHEM_NL(68)%LASSIM=.FALSE.,
YCHEM_NL(69)%CNAME='HYAC',
YCHEM_NL(69)%NREQIN=0,
YCHEM_NL(69)%RMOLMASS=74.1,
YCHEM_NL(69)%IGRBCODE=217118,
YCHEM_NL(69)%LNEGFIX=.TRUE.,
YCHEM_NL(69)%IGRIBTC=218117,
!YCHEM_NL(69)%IGRIBDV=221118,
YCHEM_NL(69)%HENRYA=6.3E3,
YCHEM_NL(69)%HENRYB=6460.0,
YCHEM_NL(69)%LADV=.TRUE.,
YCHEM_NL(69)%LMASSFIX=.TRUE.,
YCHEM_NL(69)%BETAMFBC=-999.9,
YCHEM_NL(69)%LASSIM=.FALSE.,
YCHEM_NL(70)%CNAME='ISOPBO2',
YCHEM_NL(70)%NREQIN=0,
YCHEM_NL(70)%RMOLMASS=117.0,
YCHEM_NL(70)%IGRBCODE=216216,
YCHEM_NL(70)%LNEGFIX=.TRUE.,
YCHEM_NL(70)%IGRIBTC=216217,
YCHEM_NL(70)%LADV=.FALSE.,
YCHEM_NL(70)%LMASSFIX=.FALSE.,
YCHEM_NL(70)%LMASSFIX=.FALSE.,
YCHEM_NL(70)%LASSIM=.FALSE.,
YCHEM_NL(71)%CNAME='ISOPDO2',
YCHEM_NL(71)%NREQIN=0,
YCHEM_NL(71)%RMOLMASS=117.0,
YCHEM_NL(71)%IGRBCODE=216119,
YCHEM_NL(71)%LNEGFIX=.TRUE.,
YCHEM_NL(71)%IGRIBTC=216120,
YCHEM_NL(71)%LADV=.FALSE.,
YCHEM_NL(71)%LMASSFIX=.FALSE.,
YCHEM_NL(71)%LMASSFIX=.FALSE.,
YCHEM_NL(71)%LASSIM=.FALSE.,
YCHEM_NL(72)%CNAME='SOG1',
YCHEM_NL(72)%NREQIN=0,
YCHEM_NL(72)%RMOLMASS=180.0,
YCHEM_NL(72)%IGRBCODE=217186,
YCHEM_NL(72)%LNEGFIX=.TRUE.,
YCHEM_NL(72)%IGRIBTC=218186,
YCHEM_NL(72)%HENRYA=1.E5,
YCHEM_NL(72)%HENRYB=6000.0,
YCHEM_NL(72)%LADV=.TRUE.,
YCHEM_NL(72)%LMASSFIX=.TRUE.,
YCHEM_NL(72)%BETAMFBC=-999.9,
YCHEM_NL(72)%LASSIM=.FALSE.,
YCHEM_NL(73)%CNAME='SOG2A',
YCHEM_NL(73)%NREQIN=0,
YCHEM_NL(73)%RMOLMASS=120.0,
YCHEM_NL(73)%IGRBCODE=217187,
YCHEM_NL(73)%LNEGFIX=.TRUE.,
YCHEM_NL(73)%IGRIBTC=218187,
YCHEM_NL(73)%HENRYA=1.E3,
YCHEM_NL(73)%HENRYB=6000.0,
YCHEM_NL(73)%LADV=.TRUE.,
YCHEM_NL(73)%LMASSFIX=.TRUE.,
YCHEM_NL(73)%BETAMFBC=-999.9,
YCHEM_NL(73)%LASSIM=.FALSE.,
YCHEM_NL(74)%CNAME='SOG2B',
YCHEM_NL(74)%NREQIN=0,
YCHEM_NL(74)%RMOLMASS=120.0,
YCHEM_NL(74)%IGRBCODE=217188,
YCHEM_NL(74)%LNEGFIX=.TRUE.,
YCHEM_NL(74)%IGRIBTC=218188,
YCHEM_NL(74)%HENRYA=1.E5,
YCHEM_NL(74)%HENRYB=6000.0,
YCHEM_NL(74)%LADV=.TRUE.,
YCHEM_NL(74)%LMASSFIX=.TRUE.,
YCHEM_NL(74)%BETAMFBC=-999.9,
YCHEM_NL(74)%LASSIM=.FALSE.,
YEXT_NL(1)%CNAME='EMILI',
YEXT_NL(1)%NREQIN=0,
YEXT_NL(1)%IGRBCODE=212254,
YEXT_NL(1)%LADV=.FALSE.,
YEXT_NL(1)%LGP=.TRUE.,
YEXT_NL(1)%LGPINGP=.TRUE.,
YEXT_NL(2)%CNAME='DDVEL',
YEXT_NL(2)%NREQIN=0,
YEXT_NL(2)%IGRBCODE=212250,
YEXT_NL(2)%LADV=.FALSE.,
YEXT_NL(2)%LGP=.TRUE.,
YEXT_NL(2)%LGPINGP=.TRUE.,
YEXT_NL(3)%CNAME='DDFLXA',
YEXT_NL(3)%NREQIN=0,
YEXT_NL(3)%IGRBCODE=212251,
YEXT_NL(3)%LADV=.FALSE.,
YEXT_NL(3)%LGP=.TRUE.,
YEXT_NL(3)%LGPINGP=.TRUE.,
YEXT_NL(4)%CNAME='WDFLXA',
YEXT_NL(4)%NREQIN=0,
YEXT_NL(4)%IGRBCODE=212252,