&NAMVV0
/
&NAMGEM
NHTYP=0,
/
&NAMTRANS
LFFTW=.FALSE.,
/
&NAMSTA
/
&NAM_ATLAS_IFS
/
&NAMCVER
/
