# Source common environment variables
. ../common/env_vars

# Pre-empt some common namelist settings.
# NAMARG:
CNMEXP="'hmec'"

# NAEPHY:
LEO3CH=".TRUE."
NAEPHY_EXTRA="LO3CH_HLO=.FALSE.,"

# NAMDPHY:
NVEXTR="7"
NCEXTR="79"

# NAMCT0:
NFRPOS=3
# NAMCT0_EXTRA="NSPPR=1,"  # uncomment for per-level norms

# Include common namelists
. ../common/namelists

cat >> fort.4 << EOF
&NAMGFL
NGHG=2,
YLRCH4_NL%CNAME='kCH4',
YLRCH4_NL%IGRBCODE=210071,
YLRCH4_NL%LGP=.TRUE.,YLRCH4_NL%LTRAJIO=.FALSE.,
YGHG_NL(1)%CNAME='CO2_GHG',
YGHG_NL(1)%IGRBCODE=210061,
YGHG_NL(1)%LADV5=true,
YGHG_NL(1)%LASSIM=true,
YGHG_NL(1)%LMASSFIX=true,
YGHG_NL(1)%LNEGFIX=.FALSE.,
YGHG_NL(1)%LQM=false,
YGHG_NL(1)%LQM3D=true,
YGHG_NL(1)%BETAMFBC=2,
YGHG_NL(2)%CNAME='CH4_GHG',
YGHG_NL(2)%IGRBCODE=210062,
YGHG_NL(2)%LADV5=true,
YGHG_NL(2)%LASSIM=true,
YGHG_NL(2)%LMASSFIX=true,
YGHG_NL(2)%LNEGFIX=.FALSE.,
YGHG_NL(2)%LQM=false,
YGHG_NL(2)%LQM3D=true,
YGHG_NL(2)%BETAMFBC=2,
YQ_NL%LGP=true,
YQ_NL%LSP=false,
YO3_NL%LGP=true,
YQ_NL%LGPINGP=true,
YL_NL%LGP=true,
YI_NL%LGP=true,
YA_NL%LGP=true,
!YR_NL%NREQIN=-1,
!YS_NL%NREQIN=-1,
/
 &NAERAD
 LECOMPGRID=false,
 RMUZUV=0.01,
 NUVTIM=72,
 NRADUV=1,
 NUV=24,
 KMODTS=2,
 NRPROMA=0,
 LEPO3RA=false,
 NAERMACC=1,
 LAER3D=.false.,
 /
 &NAMFPC
 CFPFMT="MODEL",
 NFP3DFS=2,
 NFP3DFP=2,
 MFP3DFS(:)=210061,210062
 MFP3DFP(:)=210061,210062
 NFP2DF=1,
 MFP2DF(:)=152,
 NFPPHY=2,
 MFPPHY(:)=210064,210065,
 NRFP3S(:)=-99,
 RFP3P=100000.,85000.,70000.,50000.,
 /
  &NAMCOMPO
  LCHEM_DIA=true,
  LCHEM_DDFLX=true,
  LCOMPO_DDFLX_DIR=true,
  LCHEM_TROPO=true,
  LCOMPO_DCDD=true,
  /
  &NAMMCC
  LMCCEC=true,
  LMCCIEC=false,
  LMCC_COMPO=false,
  /
  &NAMCOMPO_EMIS THIS%SPECIES='CO2_GHG', THIS%SECTOR='Ocean', THIS%PARAMID=210067, THIS%SCALING=-1.0 /
  &NAMCOMPO_EMIS THIS%SPECIES='CO2_GHG', THIS%SECTOR='Anthropogenic', THIS%PARAMID=210069, THIS%SCALING=-1.0 /
  &NAMCOMPO_EMIS THIS%SPECIES='CH4_GHG', THIS%SECTOR='AllButBiomassBur', THIS%PARAMID=210070, THIS%SCALING=-1.0 /
  &NAMCOMPO_EMIS THIS%SPECIES='CO2_GHG', THIS%SECTOR='Biomass-burning', THIS%PARAMID=210080, THIS%DIURNAL_CYCLE_TYPE='GFAS', THIS%DIURNAL_PEAK_HOUR=13.5, THIS%DIURNAL_BASELINE=0.2 /
  &NAMCOMPO_EMIS THIS%SPECIES='CH4_GHG', THIS%SECTOR='Biomass-burning', THIS%PARAMID=210082, THIS%DIURNAL_CYCLE_TYPE='GFAS', THIS%DIURNAL_PEAK_HOUR=13.5, THIS%DIURNAL_BASELINE=0.2 /
  &NAMCOMPO_EMIS THIS%SPECIES='CO2_GHG', THIS%SECTOR='Aviation', THIS%PARAMID=212253, THIS%VERTICAL_PROFILE_TYPE='3D' /
  &NAMCOMPO_EMIS /
EOF
