&NAEAER
/
&NAEPHY
/
&NAERAD
/
&NALBAR
/
&NALORI
/
&NAM_DISTRIBUTED_VECTORS
/
&NAM926
/
&NAMAFN
/
&NAMANA
/
&NAMARPHY
/
&NAMCA
/
&NAMCAPE
/
&NAMCFU
/
&NAMCHK
/
&NAMCHET
/
&NAMCLDP
/
&NAMCLTC
/
&NAMCOM
/
&NAMCOS
/
&NAMCTAN
/
&NAMCUMF
/
&NAMCUMFS
/
&NAMCT1
/
&NAMCVA
/
&NAMDDH
/
&NAMDFHD
/
&NAMDFI
/
&NAMDIF
/
&NAMDIM
/
&NAMDIMO
/
&NAMDMSP
/
&NAMDPHY
/
&NAMDYN
/
&NAMDYNA
/
&NAMDYNA_STATIC
/
&NAMDYNCORE
/
&NAMEMIS_CONF
/
&NAMENKF
/
&NAMFA
/
&NAMFFT
/
&NAMFPC
/
&NAMFPD
/
&NAMFPDY2
/
&NAMFPDYH
/
&NAMFPDYP
/
&NAMFPDYS
/
&NAMFPDYT
/
&NAMFPDYV
/
&NAMFPEZO
/
&NAMFPF
/
&NAMFPG
/
&NAMFPIOS
/
&NAMFPPHY
/
&NAMFPSC2
/
&NAMFPSC2_DEP
/
&NAMFY2
/
&NAMGEM
/
&NAMGFL
/
&NAMGMS
/
&NAMGOES
/
&NAMGOM
/
&NAMGRIB
/
&NAMGWD
/
&NAMGWWMS
/
&NAMHLOPT
/
&NAMINI
/
&NAMIOMI
/
&NAMIOS
/
&NAMJBCODES
/
&NAMJFH
/
&NAMJG
/
&NAMJO
/
&NAMKAP
/
&NAMLCZ
/
&NAMLEG
/
&NAMLFI
/
&NAMMCC
/
&NAMMCUF
/
&NAMMETEOSAT
/
&NAMMTS
/
&NAMMTSAT
/
&NAMMTT
/
&NAMMUL
/
&NAMNASA
/
&NAMNN
/
&NAMNPROF
/
&NAMNUD
/
&NAMOBS
/
&NAMONEDVAR
/
&NAMOPH
/
&NAMOPTCMEM
/
&NAMPAR0
/
&NAMPARAR
/
&NAMPAR1
/
&NAMPHY
/
&NAMPHY0
/
&NAMPHY1
/
&NAMPHY2
/
&NAMPHY3
/
&NAMPHYDS
/
&NAMPPC
/
&NAMPONG
/
&NAMRAD15
/
&NAMRADCMEM
/
&NAMRCOEF
/
&NAMRES
/
&NAMRINC
/
&NAMRIP
/
&NAMSATS
/
&NAMSCC
/
&NAMSCEN
/
&NAMSCM
/
&NAMSENS
/
&NAMSIMPHL
/
&NAMSKF
/
&NAMSPSDT
/
&NAMSPP
/
&NAMSSMI
/
&NAMSTA
/
&NAMSTOPH
/
&NAMTCWV
/
&NAMTESTVAR
/
&NAMTOPH
/
&NAMTOVS
/
&NAMTRAJP
/
&NAMTRANS
/
&NAMTRM
/
&NAMVAR
/
&NAMVARBC
/
&NAMVARBC_AIREP
/
&NAMVARBC_ALLSKY
/
&NAMVARBC_GBRAD
/
&NAMVARBC_RAD
/
&NAMVARBC_SFCOBS
/
&NAMVARBC_TCWV
/
&NAMVARBC_TO3
/
&NAMVAREPS
/
&NAMVDOZ
/
&NAMVFP
/
&NAMVRTL
/
&NAMVV0
/
&NAMVV1
/
&NAMVV2
/
&NAMVWRK
/
&NAMWAVELETJB
/
&NAMXFU
/
&NAMZDI
/
&NAPHLC
/
&NAV1IS
/
&NAEPHLI
/
&NAMCVER
/
&NAMPPVI
/
&NAMSPNG
/
&NAMRLX
/
&NAMTHLIM
/
&NAMOOPS
/
&NAMINTFLEX
/
&NAMIAU
/
&NAMDIM_TRAJ
/
&NAMVDF
/
&NAMGWDIAG
/
&NAMTRANS0
/
&NAMMETHOX
/
&NAM_ATLAS_IFS
/
&NAETLDIAG
/
&NAMECV
/
&NAMTRAJ
/
&NAMSATSIM
/
&NAMPHMSE
/
&NAMNORGWD
/
&NAMDVISI
/
&NAMCLRADLID
/
&NAM_MGRIDS_ADVECTION
/
&NAMNUDGLH
/
&NAMRIP0
/
