    &NAMDIM
      NPROMA=-24,
        NSMAX=21,
        NMSMAX=21,
        NVARMAX=21,
        NDGLG=32,
        NDLON=64,
        NFLEVG=19,
    /
    &NAMVV0
    /
    &NAMGEM
      NHTYP=0,
    /
    &NAMTRANS
        LFFTW=false,
    /
    &NAMSTA
    /
    &NAM_ATLAS_IFS
    /
    &NAMCVER
    /
